Version 4
SHEET 1 2872 832
WIRE 704 -144 -976 -144
WIRE -976 -128 -976 -144
WIRE 256 -112 144 -112
WIRE 368 -112 256 -112
WIRE 384 -112 368 -112
WIRE 144 -64 144 -112
WIRE 256 -64 256 -112
WIRE -976 -32 -976 -48
WIRE -768 -32 -976 -32
WIRE -304 -32 -688 -32
WIRE 256 32 256 16
WIRE -736 64 -848 64
WIRE -624 64 -736 64
WIRE -464 64 -624 64
WIRE -848 80 -848 64
WIRE -624 80 -624 64
WIRE -304 80 -304 -32
WIRE -48 80 -304 80
WIRE -16 80 -48 80
WIRE 144 80 144 16
WIRE 144 80 64 80
WIRE 192 80 144 80
WIRE -736 128 -784 128
WIRE -688 128 -736 128
WIRE -464 128 -464 64
WIRE 864 160 848 160
WIRE 880 160 864 160
WIRE -528 176 -624 176
WIRE -160 176 -176 176
WIRE -848 192 -848 176
WIRE -736 192 -736 128
WIRE -736 192 -848 192
WIRE -176 192 -176 176
WIRE 256 208 256 128
WIRE 368 208 256 208
WIRE 480 208 432 208
WIRE -848 224 -848 192
WIRE -624 224 -624 176
WIRE 480 240 480 208
WIRE 848 240 848 160
WIRE -976 272 -976 -32
WIRE -912 272 -976 272
WIRE -176 272 -560 272
WIRE 256 288 256 208
WIRE 368 288 368 208
WIRE 704 288 704 -144
WIRE 704 288 368 288
WIRE 784 288 704 288
WIRE -464 304 -464 224
WIRE -848 336 -848 320
WIRE -736 336 -848 336
WIRE -624 336 -624 320
WIRE -624 336 -736 336
WIRE -48 336 -48 80
WIRE -16 336 -48 336
WIRE 144 336 64 336
WIRE 192 336 144 336
WIRE -464 416 -464 384
WIRE -304 416 -304 80
WIRE -304 416 -464 416
WIRE 144 416 144 336
WIRE 256 416 256 384
WIRE -592 432 -608 432
WIRE -576 432 -592 432
WIRE 848 432 848 416
WIRE 992 432 848 432
WIRE 1008 432 992 432
WIRE -608 448 -608 432
WIRE 848 448 848 432
WIRE -736 496 -736 336
WIRE -464 496 -464 416
WIRE -112 496 -128 496
WIRE -128 512 -128 496
WIRE -608 544 -608 528
WIRE -608 544 -672 544
WIRE -528 544 -608 544
WIRE 144 544 144 496
WIRE 256 544 256 496
WIRE 256 544 144 544
WIRE 368 544 256 544
WIRE 368 560 368 544
WIRE -736 608 -736 592
WIRE -608 608 -608 544
WIRE -464 608 -464 592
WIRE -736 704 -736 688
WIRE -608 704 -608 688
WIRE -464 704 -464 688
FLAG -736 704 0
FLAG -608 704 0
FLAG -592 432 Vcc
FLAG -128 592 0
FLAG -128 496 Vcc
FLAG -736 64 Vcc
FLAG 368 -112 Vcc
FLAG 368 560 0
FLAG 480 240 0
FLAG -176 352 0
FLAG -176 176 Vcc
FLAG -464 704 0
FLAG 864 160 Vcc
FLAG 848 528 0
FLAG 992 432 Vout
SYMBOL pnp 192 128 M180
SYMATTR InstName Q1
SYMATTR Value BC807-25
SYMBOL npn 192 288 R0
SYMATTR InstName Q2
SYMATTR Value BC817-25
SYMBOL cap 432 192 R90
WINDOW 0 0 32 VBottom 2
WINDOW 3 48 30 VTop 2
SYMATTR InstName C1
SYMATTR Value 50n
SYMBOL res 240 -80 R0
SYMATTR InstName R5
SYMATTR Value 1.1k
SYMBOL res 240 400 R0
SYMATTR InstName R6
SYMATTR Value 1.1k
SYMBOL res 80 64 R90
WINDOW 0 0 56 VBottom 2
WINDOW 3 32 56 VTop 2
SYMATTR InstName R1
SYMATTR Value 40k
SYMBOL res 80 320 R90
WINDOW 0 0 56 VBottom 2
WINDOW 3 32 56 VTop 2
SYMATTR InstName R2
SYMATTR Value 40k
SYMBOL pnp -688 176 M180
SYMATTR InstName Q3
SYMATTR Value BC807-25
SYMBOL pnp -784 176 R180
SYMATTR InstName Q4
SYMATTR Value BC807-25
SYMBOL npn -912 224 R0
SYMATTR InstName Q5
SYMATTR Value BC817-25
SYMBOL npn -560 224 M0
SYMATTR InstName Q6
SYMATTR Value BC817-25
SYMBOL npn -672 496 M0
SYMATTR InstName Q7
SYMATTR Value BC817-25
SYMBOL res -720 704 R180
WINDOW 0 36 76 Left 2
WINDOW 3 36 40 Left 2
SYMATTR InstName R9
SYMATTR Value 100
SYMBOL res -624 592 R0
SYMATTR InstName R10
SYMATTR Value 2k
SYMBOL res -624 432 R0
SYMATTR InstName R11
SYMATTR Value 30k
SYMBOL voltage -128 496 R0
WINDOW 0 34 42 Left 2
WINDOW 3 35 72 Left 2
WINDOW 123 35 100 Left 2
WINDOW 39 0 0 Left 0
SYMATTR InstName V1
SYMATTR Value 16
SYMATTR Value2 AC 1
SYMBOL res 128 -80 R0
SYMATTR InstName R3
SYMATTR Value 10k
SYMBOL res 128 400 R0
SYMATTR InstName R4
SYMATTR Value 10k
SYMBOL res -192 176 R0
SYMATTR InstName R7
SYMATTR Value 2k
SYMBOL res -192 256 R0
SYMATTR InstName R8
SYMATTR Value 2k
SYMBOL res -672 -48 R90
WINDOW 0 0 56 VBottom 2
WINDOW 3 32 56 VTop 2
SYMATTR InstName R12
SYMATTR Value 50k
SYMBOL res -992 -144 R0
SYMATTR InstName R13
SYMATTR Value 70k
SYMBOL npn -528 128 R0
SYMATTR InstName Q8
SYMATTR Value BC817-25
SYMBOL npn -528 496 R0
SYMATTR InstName Q9
SYMATTR Value BC817-25
SYMBOL res -480 704 M180
WINDOW 0 36 76 Left 2
WINDOW 3 36 40 Left 2
SYMATTR InstName R14
SYMATTR Value 100
SYMBOL npn 784 240 R0
SYMATTR InstName Q10
SYMATTR Value BC817-25
SYMBOL res 832 320 R0
SYMATTR InstName R19
SYMATTR Value 500
SYMBOL res 832 432 R0
SYMATTR InstName Rsarcina
SYMATTR Value 11k
SYMBOL res -480 288 R0
SYMATTR InstName R20
SYMATTR Value 500
TEXT 504 744 Left 2 ;.tran 20m
TEXT 1080 16 Left 2 ;NOTES:\n \nR5 = R6 = 1.1k => f ~ 1kHz\nR5 = R6 = 20   => f ~ 22 kHz\nR19 = 0        => A ~ 11/2 = 5.5V\n \nf = 22kHz => P_Q1 ~ 130mW ~ 50% * 250mW
TEXT 480 512 Left 2 !.ac lin 10 1 900MEG
